17
Lattice="12.9485351 0.0 0.0 0.0 12.3500137 0.0 0.0 0.0 12.0796789" Properties=species:S:1:pos:R:3 pbc="F F F"
C       7.86747920       6.21129940       4.00002140 
C       7.20229780       4.98660660       4.00000000 
C       5.80908170       4.95030040       4.00002140 
C       5.08105730       6.13871090       4.00000000 
C       5.74622330       7.36342440       4.00002140 
C       7.13942910       7.39970680       4.00000000 
H       8.94853510       6.23945650       4.00157770 
H       7.76722020       4.06446720       4.00156160 
H       5.29293850       4.00000000       4.00157770 
H       4.00000000       6.11054340       4.00156160 
H       5.18131060       8.28556770       4.00157770 
H       7.65556400       8.35001370       4.00156160 
C       6.47426140       6.17500810       7.71592120 
H       7.06113900       7.01318230       8.07967890 
H       5.45494250       6.26417190       8.07967890 
H       6.47426140       6.17500810       6.62997140 
H       6.90670270       5.24767010       8.07967870 
